ipss.test.plugin.core/testData/adpter/ucte/IEEE14.uct
##C 2003.09.01
Exported from:	C:\Archivos de programa\Neplan5\Examples\ELEC\IEEE14.nepprj	
      Created:	Sábado, Octubre 08, 2005, 10:34:36
##BaseVoltage
69.0
13.8
18.0
##N
##Z1
1        BUS_2        0 2 69.0   21.7000 12.7000 -40.000 0.00000 0.00000 0.00000 40.0000 -50.000 0.000 0.00000
2        BUS_3        0 2 69.0   94.2000 19.0000 0.00000 0.00000 0.00000 0.00000 0.00000 -40.000 0.000 0.00000
3        BUS_1        0 3 69.0   0.00000 0.00000 -232.59 14.8797 0.00000 0.00000 0.00000 0.00000 0.000 0.00000
4        BUS_5        0 0 69.0   7.60000 1.60000 0.00000 0.00000 0.00000 0.00000 0.00000 0.00000 0.000 0.00000
5        BUS_4        0 0 69.0   47.8000 4.00000 0.00000 0.00000 0.00000 0.00000 0.00000 0.00000 0.000 0.00000
6        BUS_6        0 2 13.8   11.2000 7.50000 0.00000 0.00000 0.00000 0.00000 6.00000 -24.000 0.000 0.00000
7        BUS_13       0 0 13.8   13.5000 5.80000 0.00000 0.00000 0.00000 0.00000 0.00000 0.00000 0.000 0.00000
8        BUS_12       0 0 13.8   6.10000 1.60000 0.00000 0.00000 0.00000 0.00000 0.00000 0.00000 0.000 0.00000
9        BUS_11       0 0 13.8   3.50000 1.80000 0.00000 0.00000 0.00000 0.00000 0.00000 0.00000 0.000 0.00000
10       BUS_10       0 0 13.8   9.00000 5.80000 0.00000 0.00000 0.00000 0.00000 0.00000 0.00000 0.000 0.00000
11       BUS_9        0 0 13.8   29.5000 16.6000 0.00000 0.00000 0.00000 0.00000 0.00000 0.00000 0.000 0.00000
12       BUS_14       0 0 13.8   14.9000 5.00000 0.00000 0.00000 0.00000 0.00000 0.00000 0.00000 0.000 0.00000
13       BUS_7        0 0 13.8   0.00000 0.00000 0.00000 0.00000 0.00000 0.00000 0.00000 0.00000 0.000 0.00000
14       BUS_8        0 2 18.0   0.00000 0.00000 0.00000 0.00000 0.00000 0.00000 6.00000 -24.000 0.000 0.00000
##L
1        2         1 0 2.2371 9.4253 919.9746 000000
3        4         1 0 2.5723 10.618 1033.396 000000
3        1         1 0 0.9226 2.8170 1109.010 000000
5        4         1 0 0.6355 2.0048 268.8509 000000
2        5         1 0 3.1903 8.1427 726.7380 000000
1        4         1 0 2.7113 8.2784 714.1355 000000
1        5         1 0 2.7666 8.3945 785.5490 000000
6        7         1 0 0.1259 0.2480 0.000000 000000
6        8         1 0 0.2340 0.4871 0.000000 000000
6        9         1 0 0.1808 0.3787 0.000000 000000
8        7         1 0 0.4207 0.3806 0.000000 000000
10       9         1 0 0.1562 0.3657 0.000000 000000
11       12        1 0 0.2420 0.5149 0.000000 000000
11       10        1 0 0.0605 0.1609 0.000000 000000
13       11        1 0 0.0000 0.2095 0.000000 000000
7        12        1 0 0.3255 0.6627 0.000000 000000
##T
13       5         1 0 13.80 67.48 100.0 0.0000 0.3982 0.000000 0.0000 00000
6        4         1 0 13.80 64.30 100.0 0.0000 0.4799 0.000000 0.0000 00000
11       5         1 0 13.80 66.86 100.0 0.0000 1.0592 0.000000 0.0000 00000
14       13        1 0 18.00 13.80 100.0 0.0000 0.5707 0.000000 0.0000 00000
##R
13       5         1 0.000  0   0 0.000
6        4         1 0.000  0   0 0.000
11       5         1 0.000  0   0 0.000
14       13        1 0.000  0   0 0.000
##TT
